23

Pd 0.167450  0.035740  0.199140 
P  2.383410  -0.100880 -0.495740
P  -0.428390 2.285740  0.133260 
C  -1.005460 -1.008270 -1.043910
C  0.015010  -0.617100 2.084120 
O  -0.141918 -1.089375 3.297412 
O  -1.588392 -1.760196 -1.655538
H  -1.861920 2.473030  0.489280 
H  0.341210  3.114630  1.101210 
C  -0.164970 2.995810  -1.591450
H  2.566960  -1.077950 -1.604010
H  3.288310  -0.548640 0.598520 
C  1.281670  3.359880  -2.018610
H  -0.614170 2.301780  -2.338170
H  -0.774860 3.928870  -1.624030
H  1.741840  4.048270  -1.271150
C  2.233450  2.187250  -2.321200
H  1.187630  3.960370  -2.956610
H  1.698080  1.397390  -2.898190
H  3.017590  2.576510  -3.015610
C  2.977550  1.585310  -1.096120
H  4.051910  1.440740  -1.357080
H  2.963070  2.299860  -0.242290
