63

C  -0.337270 -0.285900 0.634920 
H  0.591540  -0.226720 0.027760 
C  -1.699830 0.353720  -0.180620
H  -0.580930 -1.243880 1.146760 
H  -2.592410 -0.296180 -0.039600
Ni -1.081190 1.309480  1.336520 
H  -1.511700 0.745820  -1.200320
P  0.161510  3.249220  0.938560 
P  -2.603430 0.939400  3.038070 
C  -1.954880 1.524300  4.700410 
C  -4.222740 1.806710  2.627890 
C  -2.949090 -0.911630 3.158060 
C  1.334710  3.514870  2.432850 
C  1.163140  3.258090  -0.692230
C  -1.057340 4.719510  0.943180 
H  -4.042400 2.902980  2.594970 
H  -4.575320 1.441210  1.637620 
H  -4.962590 1.560830  3.421800 
H  -1.056540 0.922110  4.960660 
H  -1.701090 2.605180  4.633050 
H  -2.753540 1.363470  5.458310 
H  -3.351500 -1.264060 2.182460 
H  -1.996250 -1.432780 3.400720 
H  -3.696130 -1.073710 3.966720 
C  -2.287950 4.570240  0.010850 
C  -1.723330 5.082480  2.298180 
C  -3.169210 5.755750  0.422880 
C  -3.029420 5.821500  1.951740 
H  -0.462680 5.611760  0.637310 
H  -1.956490 4.152800  2.865420 
H  -2.825050 3.617140  0.228190 
H  -2.038520 4.588260  -1.075240
H  -1.057670 5.709960  2.937160 
H  -3.897230 5.318660  2.441090 
H  -4.227760 5.639710  0.088960 
H  -2.760770 6.688850  -0.034470
H  -3.014030 6.880420  2.304050 
C  1.596840  2.240050  3.281840 
C  2.743090  4.159180  2.260240 
C  2.898720  2.532080  4.036920 
C  3.738720  3.209940  2.947840 
H  0.748240  4.192250  3.095980 
H  3.043270  4.373170  1.212150 
H  1.760930  1.361220  2.614020 
H  0.763790  1.999790  3.981450 
H  2.762720  5.142930  2.788180 
H  4.090770  2.442750  2.216950 
H  3.379830  1.611430  4.444930 
H  2.708310  3.243350  4.875990 
H  4.631150  3.739070  3.359050 
C  1.225410  1.988230  -1.579980
C  0.905900  4.418130  -1.703020
C  1.392850  2.483060  -3.022460
C  0.530420  3.748780  -3.032240
H  2.210140  3.381210  -0.341910
H  0.130030  5.152450  -1.401210
H  0.254960  1.464260  -1.545920
H  2.025530  1.269960  -1.280140
H  1.845510  5.003880  -1.849440
H  -0.550840 3.470280  -3.025990
H  1.069020  1.732900  -3.783010
H  2.460570  2.746950  -3.213420
H  0.726110  4.398930  -3.917970
